Circuit: * C:\Electric\LTspice_CMOSedu\LTspice_CMOSedu\Ch1_MSD_LTspice\inverter.asc

Fatal Error: No analysis request found.
