Circuit: *** SPICE deck for cell inv_8_sim_0{sch} from library V1_updated

Ignoring BSIM parameter HDIF
Ignoring BSIM parameter ACM
Ignoring BSIM parameter XL
Ignoring BSIM parameter XW
Ignoring BSIM parameter HDIF
Ignoring BSIM parameter ACM
Ignoring BSIM parameter XL
Ignoring BSIM parameter XW
Warning: Pd = 0 is less than W.
Warning: Ps = 0 is less than W.
Warning: Pd = 0 is less than W.
Warning: Ps = 0 is less than W.
Warning: Pd = 0 is less than W.
Warning: Ps = 0 is less than W.
Warning: Pd = 0 is less than W.
Warning: Ps = 0 is less than W.
Direct Newton iteration for .op point succeeded.

tpdr=2.1763e-011 FROM 2.00029e-008 TO 2.00247e-008
tpdf=1.25172e-011 FROM 1.00001e-008 TO 1.00126e-008


Date: Tue Apr 17 18:23:37 2018
Total elapsed time: 0.220 seconds.

tnom = 27
temp = 27
method = modified trap
totiter = 2319
traniter = 2308
tranpoints = 1085
accept = 1071
rejected = 14
matrix size = 13
fillins = 0
solver = Normal
Matrix Compiler1: 676 bytes object code size  0.3/0.1/[0.1]
Matrix Compiler2: 1.17 KB object code size  0.2/0.3/[0.1]

