Circuit: *** SPICE deck for cell inverter_sim{sch} from library tutorial_3

Ignoring BSIM parameter XL
Ignoring BSIM parameter XW
Ignoring BSIM parameter XL
Ignoring BSIM parameter XW
WARNING: Node INV_20_1@0:NMOS@0_S is floating.

WARNING: Less than two connections to node INV_20_1@0:NMOS@0_S.  This node is used by M:INV_20_1@0:NMOS@0.
WARNING: Less than two connections to node INV_20_1@0:PMOS@0_S.  This node is used by M:INV_20_1@0:PMOS@0.
Warning: Pd = 0 is less than W.
Warning: Ps = 0 is less than W.
Warning: Pd = 0 is less than W.
Warning: Ps = 0 is less than W.

Date: Fri Mar 23 17:55:50 2018
Total elapsed time: 0.236 seconds.

tnom = 27
temp = 27
method = trap
totiter = 10014
traniter = 0
tranpoints = 0
accept = 0
rejected = 0
matrix size = 7
fillins = 0
solver = Normal
Matrix Compiler1:      16 opcodes  0.1/[0.1]/0.1
Matrix Compiler2: 589 bytes object code size  0.1/0.2/[0.0]

