Circuit: *** SPICE deck for cell NAND_3_sim{sch} from library Proj1248xywz_multi

Ignoring BSIM parameter HDIF
Ignoring BSIM parameter ACM
Ignoring BSIM parameter XL
Ignoring BSIM parameter XW
Ignoring BSIM parameter HDIF
Ignoring BSIM parameter ACM
Ignoring BSIM parameter XL
Ignoring BSIM parameter XW
Warning: Pd = 0 is less than W.
Warning: Ps = 0 is less than W.
Warning: Pd = 0 is less than W.
Warning: Ps = 0 is less than W.
Warning: Pd = 0 is less than W.
Warning: Ps = 0 is less than W.
Warning: Pd = 0 is less than W.
Warning: Ps = 0 is less than W.
Direct Newton iteration for .op point succeeded.

tpdr=2.60522e-011 FROM 2.00001e-008 TO 2.00262e-008
tpdf=2.70128e-011 FROM 1.00001e-008 TO 1.00271e-008


Date: Tue Apr 03 18:16:45 2018
Total elapsed time: 0.191 seconds.

tnom = 27
temp = 27
method = modified trap
totiter = 2737
traniter = 2718
tranpoints = 1228
accept = 1193
rejected = 35
matrix size = 11
fillins = 0
solver = Normal
Matrix Compiler1: 522 bytes object code size  0.2/0.2/[0.1]
Matrix Compiler2: 1.00 KB object code size  0.2/0.3/[0.1]

