Circuit: *** SPICE deck for cell osc5{sch} from library Project1

Vgnd: both pins shorted together -- ignoring.
